#p opt rb3lyp/6-31g geom=connectivity

ACE+ALA+NME

0 1
 C                 -2.85089353   -0.62306602   -1.67030248
 H                 -2.89739794   -1.71124057   -1.53635608
 H                 -2.19011588   -0.41660459   -2.51950880
 H                 -3.85167819   -0.25850983   -1.90240220
 C                 -2.38916850    0.06763901   -0.39860801
 O                 -3.14724972    0.82739429    0.24363583
 N                 -1.11221753   -0.19014251    0.03606591
 H                 -0.44741664   -0.52025009   -0.65745236
 C                 -0.56744145   -0.02980175    1.37935143
 H                 -1.03267837    0.83946725    1.86050610
 C                 -0.78817531   -1.28333410    2.26223263
 H                 -0.29599335   -2.14689389    1.80437389
 H                 -0.37869020   -1.13917049    3.26875236
 H                 -1.85647080   -1.50271963    2.35009022
 C                  0.94135381    0.22775128    1.22487830
 O                  1.57479773   -0.23114340    0.24692766
 N                  1.52768419    0.93468767    2.23263989
 H                  0.95077859    1.30068097    2.97583602
 C                  2.96536777    1.20417210    2.27020908
 H                  3.40831999    0.74487903    1.38556708
 H                  3.16332234    2.28115193    2.25045707
 H                  3.42333463    0.77285245    3.16687492

 1 5 1.0 2 1.0 3 1.0 4 1.0
 2
 3
 4
 5 6 2.0 7 1.5
 6
 7 8 1.0 9 1.0
 8
 9 10 1.0 11 1.0 15 1.0
 10
 11 12 1.0 13 1.0 14 1.0
 12
 13
 14
 15 16 2.0 17 1.5
 16
 17 18 1.0 19 1.0
 18
 19 20 1.0 21 1.0 22 1.0
 20
 21
 22

