#p opt rb3lyp/6-31g geom=connectivity

ACE+ALA+NME

0 1
 C                 -2.73039016    0.67763835    1.30311412
 H                 -2.76972707   -0.40585812    1.13365572
 H                 -2.77634424    1.17269965    0.32679075
 H                 -3.60127522    0.96928200    1.89034886
 C                 -1.48991984    1.06595298    2.08919007
 O                 -1.57067768    1.53936312    3.24407248
 N                 -0.27000629    0.85690892    1.49412031
 H                  0.53376382    0.77045927    2.10924543
 C                  0.02814528    0.71820407    0.07328509
 H                 -0.80253336    0.20354213   -0.42539304
 C                  0.27370628    2.08302039   -0.61702080
 H                  1.12411097    2.58560068   -0.14602383
 H                  0.48816269    1.95695192   -1.68456862
 H                 -0.60612843    2.72503224   -0.51302126
 C                  1.29562422   -0.14655310   -0.03784916
 O                  1.50914923   -0.84618930   -1.05428373
 N                  2.12158592   -0.12887604    1.04686305
 H                  1.90327111    0.48205652    1.82030452
 C                  3.33064041   -0.94905482    1.12724599
 H                  3.40034110   -1.52202954    0.20172449
 H                  4.22355198   -0.32288843    1.22767645
 H                  3.28154076   -1.64043013    1.97540241

 1 5 1.0 2 1.0 3 1.0 4 1.0
 2
 3
 4
 5 6 2.0 7 1.5
 6
 7 8 1.0 9 1.0
 8
 9 10 1.0 11 1.0 15 1.0
 10
 11 12 1.0 13 1.0 14 1.0
 12
 13
 14
 15 16 2.0 17 1.5
 16
 17 18 1.0 19 1.0
 18
 19 20 1.0 21 1.0 22 1.0
 20
 21
 22

