#p opt rb3lyp/6-31g geom=connectivity

ACE+ALA+NME

0 1
 C                 -2.58418256    1.23327687   -1.35292880
 H                 -2.07647503    1.05266209   -2.30887833
 H                 -2.20365838    2.17523012   -0.94264815
 H                 -3.65321274    1.33412783   -1.54093146
 C                 -2.38916850    0.06763901   -0.39860801
 O                 -3.34968863   -0.64662723   -0.03581719
 N                 -1.11221753   -0.19014251    0.03606591
 H                 -0.91787860   -1.13260614    0.36147877
 C                  0.02814528    0.71820407    0.07328509
 H                 -0.01891316    1.39846029   -0.78614541
 C                  0.08335473    1.54729533    1.38061275
 H                  0.16574224    0.87432102    2.23964191
 H                  0.94236056    2.22820204    1.38487896
 H                 -0.82970627    2.13943829    1.49370812
 C                  1.29562422   -0.14655310   -0.03784916
 O                  1.30763994   -1.32617276    0.38236037
 N                  2.38839431    0.47015436   -0.57137633
 H                  2.29909921    1.41412140   -0.91787924
 C                  3.68845847   -0.19207506   -0.68206853
 H                  3.58053638   -1.19703559   -0.27200095
 H                  4.00365754   -0.26529234   -1.72837177
 H                  4.45453928    0.34746122   -0.11479372

 1 5 1.0 2 1.0 3 1.0 4 1.0
 2
 3
 4
 5 6 2.0 7 1.5
 6
 7 8 1.0 9 1.0
 8
 9 10 1.0 11 1.0 15 1.0
 10
 11 12 1.0 13 1.0 14 1.0
 12
 13
 14
 15 16 2.0 17 1.5
 16
 17 18 1.0 19 1.0
 18
 19 20 1.0 21 1.0 22 1.0
 20
 21
 22

