#p opt rb3lyp/6-31g geom=connectivity

ACE+ALA+NME

0 1
 C                 -2.16213917   -0.12518962    2.75007641
 H                 -1.57763659   -0.48631677    3.60574694
 H                 -2.29803613   -0.96340475    2.05773820
 H                 -3.13853310    0.20064413    3.10900356
 C                 -1.48991984    1.06595298    2.08919007
 O                 -2.01426798    2.20141949    2.10212104
 N                 -0.27000629    0.85690892    1.49412031
 H                  0.07140262   -0.09943941    1.46697864
 C                  0.60650597    1.83842181    0.86541940
 H                 -0.00103599    2.60788473    0.37307463
 C                  1.56472708    2.51273887    1.87865916
 H                  2.19784228    1.75320378    2.34757793
 H                  2.20857756    3.25153740    1.38756196
 H                  0.99357270    3.01716455    2.66379713
 C                  1.42979784    1.09054258   -0.19737211
 O                  1.86855266    1.68690847   -1.20735473
 N                  1.59906417   -0.24538016    0.01660254
 H                  1.24395792   -0.65508715    0.86816075
 C                  2.29734263   -1.11112013   -0.93411767
 H                  2.61443707   -0.48921146   -1.77222804
 H                  3.18022996   -1.56744419   -0.47396552
 H                  1.63704174   -1.90312340   -1.30359494

 1 5 1.0 2 1.0 3 1.0 4 1.0
 2
 3
 4
 5 6 2.0 7 1.5
 6
 7 8 1.0 9 1.0
 8
 9 10 1.0 11 1.0 15 1.0
 10
 11 12 1.0 13 1.0 14 1.0
 12
 13
 14
 15 16 2.0 17 1.5
 16
 17 18 1.0 19 1.0
 18
 19 20 1.0 21 1.0 22 1.0
 20
 21
 22

